/*---------------------------------------------------------------------------*\
| =========                 |                                                 |
| \\      /  F ield         | foam-extend: Open Source CFD                    |
|  \\    /   O peration     | Version:     4.1                                |
|   \\  /    A nd           | Web:         http://www.foam-extend.org         |
|    \\/     M anipulation  | For copyright notice see file Copyright         |
\*---------------------------------------------------------------------------*/
Build  : 4.1-dace0ac19d1c
Exec   : dgScalarTransport
Date   : Apr 19 2019
Time   : 15:46:09
Host   : "GUbuntu"
PID    : 22915
CtrlDict : "/home/gregor/foam/gregor-4.0/run/discontinuousGalerkin/foam/run/dgDiv/div1d_dg/system/controlDict"
Case   : /home/gregor/foam/gregor-4.0/run/discontinuousGalerkin/foam/run/dgDiv/div1d_dg
nProcs : 1
sigFpe : Enabling floating point exception trapping (FOAM_SIGFPE).
allowSystemOperations : Disallowing user-supplied system call operations

// * * * * * * * * * * * * * * * * * * * * * * * * * * * * * * * * * * * * * //
Create time

Create polyMesh for time = 0

Create DG mesh for time = 0

 NEW SELECTOR DGBASE 
 Reading quadrature rule and order: 
 Rule and order read in. Finding in iterator quadrature rule: 
 Returning a constructor: 
Deploying fifth order quadrature rule.

    From function dgMesh::dgMesh(const polyMesh& pMesh)
    in file dgMesh/dgMesh.C at line 86
    Creating dgMesh from polyMesh
Create mesh for time = 0

Reading field T


Calculating temperature distribution

-----------Time = 0.1

CONSTRUCT MATRIX
CONSTRUCT MATRIX
DIV DIAGONAL IS: square
10{(0 0 0 -0.5 0 5.551115123e-17 0 -0.5 0)}
DIV DIAGONAL IS: square
10((1 1 1 0.5 1 1 1 0.5 1) (1 1 1 0.5 1 1 1 0.5 1) (1 1 1 0.5 1 1 1 0.5 1) (1 1 1 0.5 1 1 1 0.5 1) (1 1 1 0.5 1 1 1 0.5 1) (1 1 1 0.5 1 1 1 0.5 1) (1 1 1 0.5 1 1 1 0.5 1) (1 1 1 0.5 1 1 1 0.5 1) (1 1 1 0.5 1 1 1 0.5 1) (0 0 0 -0.5 0 5.551115123e-17 0 -0.5 0))

DIV DIAGONAL IS NEG SUM: square
10((1 1 1 0.5 1 1 1 0.5 1) (1 1 1 0.5 1 1 1 0.5 1) (1 1 1 0.5 1 1 1 0.5 1) (1 1 1 0.5 1 1 1 0.5 1) (1 1 1 0.5 1 1 1 0.5 1) (1 1 1 0.5 1 1 1 0.5 1) (1 1 1 0.5 1 1 1 0.5 1) (1 1 1 0.5 1 1 1 0.5 1) (1 1 1 0.5 1 1 1 0.5 1) (0 0 0 -0.5 0 5.551115123e-17 0 -0.5 0))

 DG PATCH FIELD one in
 DG PATCH FIELD one out
 DG PATCH FIELD two in
 DG PATCH FIELD two out
DIV OUT diag 10((1.5 0.5 1.5 2.220446049e-16 1.5 0.5 1.5 2.220446049e-16 1.5) (1 1 1 0.5 1 1 1 0.5 1) (1 1 1 0.5 1 1 1 0.5 1) (1 1 1 0.5 1 1 1 0.5 1) (1 1 1 0.5 1 1 1 0.5 1) (1 1 1 0.5 1 1 1 0.5 1) (1 1 1 0.5 1 1 1 0.5 1) (1 1 1 0.5 1 1 1 0.5 1) (1 1 1 0.5 1 1 1 0.5 1) (0 0 0 -0.5 0 5.551115123e-17 0 -0.5 0))

DIV OUT source 10((-4 4 -4) (0 0 0) (0 0 0) (0 0 0) (0 0 0) (0 0 0) (0 0 0) (0 0 0) (0 0 0) (0 0 0))


SOLVER:
MATRIX TE diag: square
10((6.5 0.5 1.5 2.220446049e-16 3.166666667 0.5 1.5 2.220446049e-16 2.5) (6 1 1 0.5 2.666666667 1 1 0.5 2) (6 1 1 0.5 2.666666667 1 1 0.5 2) (6 1 1 0.5 2.666666667 1 1 0.5 2) (6 1 1 0.5 2.666666667 1 1 0.5 2) (6 1 1 0.5 2.666666667 1 1 0.5 2) (6 1 1 0.5 2.666666667 1 1 0.5 2) (6 1 1 0.5 2.666666667 1 1 0.5 2) (6 1 1 0.5 2.666666667 1 1 0.5 2) (5 0 0 -0.5 1.666666667 5.551115123e-17 0 -0.5 1))

MATRIX TE upper: square
9{(0 0 0 0 0 0 0 0 0)}

MATRIX TE lowa: square
9{(-1 1 -1 -1 1 -1 -1 1 -1)}

MATRIX TE sors: 10((46 4 -4) (50 0 0) (50 0 0) (50 0 0) (50 0 0) (50 0 0) (50 0 0) (50 0 0) (50 0 0) (50 0 0))

DG MATRIX SOLVE
BiCGStab:  Solving for T, Initial residual = (0.3303650469 0.672121992 0.3303650469), Final residual = (1.593721441e-32 3.369983663e-33 4.0018556e-33), No Iterations 1
SOLVER OUT

- - - - - - - - - - - -

Tvol: 10(11.76700839 11.44242989 10.72254358 10.52621094 10.47266568 10.45806243 10.45407972 10.45299353 10.45269729 6.343846646)


- - - - - - - - - - - -

T: 10((8.436160298 2.31500466 -6.661696179) (9.057019402 -0.1118359739 -4.770820978) (9.366647925 0.9099381513 -2.711791301) (9.451092067 1.188603822 -2.150237753) (9.474122288 1.26460355 -1.997086785) (9.480403257 1.285330749 -1.95531834) (9.482116249 1.290983621 -1.943926945) (9.482583428 1.292525314 -1.940820201) (9.482710841 1.292945775 -1.939972908) (11.24995843 7.124862824 9.81222357))

Test harness successfully finished.
-----------Time = 0.2

CONSTRUCT MATRIX
CONSTRUCT MATRIX
DIV DIAGONAL IS: square
10{(0 0 0 -0.5 0 5.551115123e-17 0 -0.5 0)}
DIV DIAGONAL IS: square
10((1 1 1 0.5 1 1 1 0.5 1) (1 1 1 0.5 1 1 1 0.5 1) (1 1 1 0.5 1 1 1 0.5 1) (1 1 1 0.5 1 1 1 0.5 1) (1 1 1 0.5 1 1 1 0.5 1) (1 1 1 0.5 1 1 1 0.5 1) (1 1 1 0.5 1 1 1 0.5 1) (1 1 1 0.5 1 1 1 0.5 1) (1 1 1 0.5 1 1 1 0.5 1) (0 0 0 -0.5 0 5.551115123e-17 0 -0.5 0))

DIV DIAGONAL IS NEG SUM: square
10((1 1 1 0.5 1 1 1 0.5 1) (1 1 1 0.5 1 1 1 0.5 1) (1 1 1 0.5 1 1 1 0.5 1) (1 1 1 0.5 1 1 1 0.5 1) (1 1 1 0.5 1 1 1 0.5 1) (1 1 1 0.5 1 1 1 0.5 1) (1 1 1 0.5 1 1 1 0.5 1) (1 1 1 0.5 1 1 1 0.5 1) (1 1 1 0.5 1 1 1 0.5 1) (0 0 0 -0.5 0 5.551115123e-17 0 -0.5 0))

 DG PATCH FIELD one in
 DG PATCH FIELD one out
 DG PATCH FIELD two in
 DG PATCH FIELD two out
DIV OUT diag 10((1.5 0.5 1.5 2.220446049e-16 1.5 0.5 1.5 2.220446049e-16 1.5) (1 1 1 0.5 1 1 1 0.5 1) (1 1 1 0.5 1 1 1 0.5 1) (1 1 1 0.5 1 1 1 0.5 1) (1 1 1 0.5 1 1 1 0.5 1) (1 1 1 0.5 1 1 1 0.5 1) (1 1 1 0.5 1 1 1 0.5 1) (1 1 1 0.5 1 1 1 0.5 1) (1 1 1 0.5 1 1 1 0.5 1) (0 0 0 -0.5 0 5.551115123e-17 0 -0.5 0))

DIV OUT source 10((-4 4 -4) (0 0 0) (0 0 0) (0 0 0) (0 0 0) (0 0 0) (0 0 0) (0 0 0) (0 0 0) (0 0 0))


SOLVER:
MATRIX TE diag: square
10((6.5 0.5 1.5 2.220446049e-16 3.166666667 0.5 1.5 2.220446049e-16 2.5) (6 1 1 0.5 2.666666667 1 1 0.5 2) (6 1 1 0.5 2.666666667 1 1 0.5 2) (6 1 1 0.5 2.666666667 1 1 0.5 2) (6 1 1 0.5 2.666666667 1 1 0.5 2) (6 1 1 0.5 2.666666667 1 1 0.5 2) (6 1 1 0.5 2.666666667 1 1 0.5 2) (6 1 1 0.5 2.666666667 1 1 0.5 2) (6 1 1 0.5 2.666666667 1 1 0.5 2) (5 0 0 -0.5 1.666666667 5.551115123e-17 0 -0.5 1))

MATRIX TE upper: square
9{(0 0 0 0 0 0 0 0 0)}

MATRIX TE lowa: square
9{(-1 1 -1 -1 1 -1 -1 1 -1)}

MATRIX TE sors: 10((38.18080149 7.8583411 -10.66169618) (45.28509701 -0.1863932898 -4.770820978) (46.83323962 1.516563586 -2.711791301) (47.25546034 1.98100637 -2.150237753) (47.37061144 2.107672584 -1.997086785) (47.40201629 2.142217915 -1.95531834) (47.41058124 2.151639369 -1.943926945) (47.41291714 2.154208856 -1.940820201) (47.4135542 2.154909625 -1.939972908) (56.24979216 11.87477137 9.81222357))

DG MATRIX SOLVE
BiCGStab:  Solving for T, Initial residual = (0.2396409666 0.1915812276 0.228184533), Final residual = (5.329862424e-33 2.351409893e-33 3.017642696e-33), No Iterations 1
SOLVER OUT

- - - - - - - - - - - -

Tvol: 10(12.03083393 12.72828063 11.66940702 11.27722556 11.14206759 11.09751558 11.08326756 11.0788097 11.07743791 2.617026815)


- - - - - - - - - - - -

T: 10((7.614226689 3.876299477 -8.833214485) (8.223828777 -0.1442592154 -9.00890371) (8.559402086 1.05602126 -6.220009867) (8.695394229 1.530128576 -5.163662656) (8.744611764 1.699455507 -4.794911653) (8.761342574 1.75655147 -4.672346022) (8.766807662 1.775100158 -4.632919802) (8.768544178 1.780970817 -4.620531043) (8.769084875 1.78279334 -4.616706067) (11.72387553 12.06377676 18.21369742))

Test harness successfully finished.
-----------Time = 0.3

CONSTRUCT MATRIX
CONSTRUCT MATRIX
DIV DIAGONAL IS: square
10{(0 0 0 -0.5 0 5.551115123e-17 0 -0.5 0)}
DIV DIAGONAL IS: square
10((1 1 1 0.5 1 1 1 0.5 1) (1 1 1 0.5 1 1 1 0.5 1) (1 1 1 0.5 1 1 1 0.5 1) (1 1 1 0.5 1 1 1 0.5 1) (1 1 1 0.5 1 1 1 0.5 1) (1 1 1 0.5 1 1 1 0.5 1) (1 1 1 0.5 1 1 1 0.5 1) (1 1 1 0.5 1 1 1 0.5 1) (1 1 1 0.5 1 1 1 0.5 1) (0 0 0 -0.5 0 5.551115123e-17 0 -0.5 0))

DIV DIAGONAL IS NEG SUM: square
10((1 1 1 0.5 1 1 1 0.5 1) (1 1 1 0.5 1 1 1 0.5 1) (1 1 1 0.5 1 1 1 0.5 1) (1 1 1 0.5 1 1 1 0.5 1) (1 1 1 0.5 1 1 1 0.5 1) (1 1 1 0.5 1 1 1 0.5 1) (1 1 1 0.5 1 1 1 0.5 1) (1 1 1 0.5 1 1 1 0.5 1) (1 1 1 0.5 1 1 1 0.5 1) (0 0 0 -0.5 0 5.551115123e-17 0 -0.5 0))

 DG PATCH FIELD one in
 DG PATCH FIELD one out
 DG PATCH FIELD two in
 DG PATCH FIELD two out
DIV OUT diag 10((1.5 0.5 1.5 2.220446049e-16 1.5 0.5 1.5 2.220446049e-16 1.5) (1 1 1 0.5 1 1 1 0.5 1) (1 1 1 0.5 1 1 1 0.5 1) (1 1 1 0.5 1 1 1 0.5 1) (1 1 1 0.5 1 1 1 0.5 1) (1 1 1 0.5 1 1 1 0.5 1) (1 1 1 0.5 1 1 1 0.5 1) (1 1 1 0.5 1 1 1 0.5 1) (1 1 1 0.5 1 1 1 0.5 1) (0 0 0 -0.5 0 5.551115123e-17 0 -0.5 0))

DIV OUT source 10((-4 4 -4) (0 0 0) (0 0 0) (0 0 0) (0 0 0) (0 0 0) (0 0 0) (0 0 0) (0 0 0) (0 0 0))


SOLVER:
MATRIX TE diag: square
10((6.5 0.5 1.5 2.220446049e-16 3.166666667 0.5 1.5 2.220446049e-16 2.5) (6 1 1 0.5 2.666666667 1 1 0.5 2) (6 1 1 0.5 2.666666667 1 1 0.5 2) (6 1 1 0.5 2.666666667 1 1 0.5 2) (6 1 1 0.5 2.666666667 1 1 0.5 2) (6 1 1 0.5 2.666666667 1 1 0.5 2) (6 1 1 0.5 2.666666667 1 1 0.5 2) (6 1 1 0.5 2.666666667 1 1 0.5 2) (6 1 1 0.5 2.666666667 1 1 0.5 2) (5 0 0 -0.5 1.666666667 5.551115123e-17 0 -0.5 1))

MATRIX TE upper: square
9{(0 0 0 0 0 0 0 0 0)}

MATRIX TE lowa: square
9{(-1 1 -1 -1 1 -1 -1 1 -1)}

MATRIX TE sors: 10((34.07113345 10.46049913 -12.83321449) (41.11914388 -0.2404320256 -9.00890371) (42.79701043 1.760035433 -6.220009867) (43.47697115 2.550214294 -5.163662656) (43.72305882 2.832425845 -4.794911653) (43.80671287 2.927585784 -4.672346022) (43.83403831 2.958500263 -4.632919802) (43.84272089 2.968284695 -4.620531043) (43.84542438 2.971322233 -4.616706067) (58.61937763 20.1062946 18.21369742))

DG MATRIX SOLVE
BiCGStab:  Solving for T, Initial residual = (0.1556464482 0.06687788531 0.1491302354), Final residual = (5.900187029e-33 1.317006033e-33 1.475046757e-33), No Iterations 1
SOLVER OUT

- - - - - - - - - - - -

Tvol: 10(11.70866881 13.57603664 12.57014088 12.07814418 11.86974996 11.78862488 11.75877061 11.74821929 11.74460243 -0.6425475875)


- - - - - - - - - - - -

T: 10((7.032327629 4.780054836 -9.352682371) (7.609429481 0.2953717407 -11.93321432) (7.782329256 1.059501549 -9.575623239) (7.905886557 1.533371527 -8.344515253) (7.966808699 1.756088921 -7.805882517) (7.992590808 1.848073417 -7.59206814) (8.002597487 1.883248879 -7.512346238) (8.006267572 1.896021269 -7.48390344) (8.007560477 1.900488289 -7.474083913) (11.45047318 14.67871168 24.18604154))

Test harness successfully finished.
-----------Time = 0.4

CONSTRUCT MATRIX
CONSTRUCT MATRIX
DIV DIAGONAL IS: square
10{(0 0 0 -0.5 0 5.551115123e-17 0 -0.5 0)}
DIV DIAGONAL IS: square
10((1 1 1 0.5 1 1 1 0.5 1) (1 1 1 0.5 1 1 1 0.5 1) (1 1 1 0.5 1 1 1 0.5 1) (1 1 1 0.5 1 1 1 0.5 1) (1 1 1 0.5 1 1 1 0.5 1) (1 1 1 0.5 1 1 1 0.5 1) (1 1 1 0.5 1 1 1 0.5 1) (1 1 1 0.5 1 1 1 0.5 1) (1 1 1 0.5 1 1 1 0.5 1) (0 0 0 -0.5 0 5.551115123e-17 0 -0.5 0))

DIV DIAGONAL IS NEG SUM: square
10((1 1 1 0.5 1 1 1 0.5 1) (1 1 1 0.5 1 1 1 0.5 1) (1 1 1 0.5 1 1 1 0.5 1) (1 1 1 0.5 1 1 1 0.5 1) (1 1 1 0.5 1 1 1 0.5 1) (1 1 1 0.5 1 1 1 0.5 1) (1 1 1 0.5 1 1 1 0.5 1) (1 1 1 0.5 1 1 1 0.5 1) (1 1 1 0.5 1 1 1 0.5 1) (0 0 0 -0.5 0 5.551115123e-17 0 -0.5 0))

 DG PATCH FIELD one in
 DG PATCH FIELD one out
 DG PATCH FIELD two in
 DG PATCH FIELD two out
DIV OUT diag 10((1.5 0.5 1.5 2.220446049e-16 1.5 0.5 1.5 2.220446049e-16 1.5) (1 1 1 0.5 1 1 1 0.5 1) (1 1 1 0.5 1 1 1 0.5 1) (1 1 1 0.5 1 1 1 0.5 1) (1 1 1 0.5 1 1 1 0.5 1) (1 1 1 0.5 1 1 1 0.5 1) (1 1 1 0.5 1 1 1 0.5 1) (1 1 1 0.5 1 1 1 0.5 1) (1 1 1 0.5 1 1 1 0.5 1) (0 0 0 -0.5 0 5.551115123e-17 0 -0.5 0))

DIV OUT source 10((-4 4 -4) (0 0 0) (0 0 0) (0 0 0) (0 0 0) (0 0 0) (0 0 0) (0 0 0) (0 0 0) (0 0 0))


SOLVER:
MATRIX TE diag: square
10((6.5 0.5 1.5 2.220446049e-16 3.166666667 0.5 1.5 2.220446049e-16 2.5) (6 1 1 0.5 2.666666667 1 1 0.5 2) (6 1 1 0.5 2.666666667 1 1 0.5 2) (6 1 1 0.5 2.666666667 1 1 0.5 2) (6 1 1 0.5 2.666666667 1 1 0.5 2) (6 1 1 0.5 2.666666667 1 1 0.5 2) (6 1 1 0.5 2.666666667 1 1 0.5 2) (6 1 1 0.5 2.666666667 1 1 0.5 2) (6 1 1 0.5 2.666666667 1 1 0.5 2) (5 0 0 -0.5 1.666666667 5.551115123e-17 0 -0.5 1))

MATRIX TE upper: square
9{(0 0 0 0 0 0 0 0 0)}

MATRIX TE lowa: square
9{(-1 1 -1 -1 1 -1 -1 1 -1)}

MATRIX TE sors: 10((31.16163814 11.96675806 -13.35268237) (38.0471474 0.4922862345 -11.93321432) (38.91164628 1.765835915 -9.575623239) (39.52943278 2.555619211 -8.344515253) (39.83404349 2.926814869 -7.805882517) (39.96295404 3.080122362 -7.59206814) (40.01298743 3.138748131 -7.512346238) (40.03133786 3.160035449 -7.48390344) (40.03780238 3.167480481 -7.474083913) (57.2523659 24.46451947 24.18604154))

DG MATRIX SOLVE
BiCGStab:  Solving for T, Initial residual = (0.1238808282 0.02676898648 0.109922865), Final residual = (2.044570527e-33 8.889437073e-34 1.688993044e-33), No Iterations 1
SOLVER OUT

- - - - - - - - - - - -

Tvol: 10(11.1560329 14.02683799 13.3192461 12.83630008 12.58482437 12.4703494 12.42242393 12.40349622 12.39633856 -2.915826771)


- - - - - - - - - - - -

T: 10((6.527304941 5.240679795 -9.257455913) (7.138310559 1.023508142 -13.77705486) (7.095165686 1.126560543 -12.44816082) (7.159890744 1.44335131 -11.35281866) (7.213429219 1.659979246 -10.74279029) (7.242832879 1.771649491 -10.45503304) (7.256507011 1.821929554 -10.33183384) (7.262288084 1.842769232 -10.28241626) (7.26458188 1.850927062 -10.26351337) (10.48050147 14.91294699 26.79265648))

Test harness successfully finished.
-----------Time = 0.5

CONSTRUCT MATRIX
CONSTRUCT MATRIX
DIV DIAGONAL IS: square
10{(0 0 0 -0.5 0 5.551115123e-17 0 -0.5 0)}
DIV DIAGONAL IS: square
10((1 1 1 0.5 1 1 1 0.5 1) (1 1 1 0.5 1 1 1 0.5 1) (1 1 1 0.5 1 1 1 0.5 1) (1 1 1 0.5 1 1 1 0.5 1) (1 1 1 0.5 1 1 1 0.5 1) (1 1 1 0.5 1 1 1 0.5 1) (1 1 1 0.5 1 1 1 0.5 1) (1 1 1 0.5 1 1 1 0.5 1) (1 1 1 0.5 1 1 1 0.5 1) (0 0 0 -0.5 0 5.551115123e-17 0 -0.5 0))

DIV DIAGONAL IS NEG SUM: square
10((1 1 1 0.5 1 1 1 0.5 1) (1 1 1 0.5 1 1 1 0.5 1) (1 1 1 0.5 1 1 1 0.5 1) (1 1 1 0.5 1 1 1 0.5 1) (1 1 1 0.5 1 1 1 0.5 1) (1 1 1 0.5 1 1 1 0.5 1) (1 1 1 0.5 1 1 1 0.5 1) (1 1 1 0.5 1 1 1 0.5 1) (1 1 1 0.5 1 1 1 0.5 1) (0 0 0 -0.5 0 5.551115123e-17 0 -0.5 0))

 DG PATCH FIELD one in
 DG PATCH FIELD one out
 DG PATCH FIELD two in
 DG PATCH FIELD two out
DIV OUT diag 10((1.5 0.5 1.5 2.220446049e-16 1.5 0.5 1.5 2.220446049e-16 1.5) (1 1 1 0.5 1 1 1 0.5 1) (1 1 1 0.5 1 1 1 0.5 1) (1 1 1 0.5 1 1 1 0.5 1) (1 1 1 0.5 1 1 1 0.5 1) (1 1 1 0.5 1 1 1 0.5 1) (1 1 1 0.5 1 1 1 0.5 1) (1 1 1 0.5 1 1 1 0.5 1) (1 1 1 0.5 1 1 1 0.5 1) (0 0 0 -0.5 0 5.551115123e-17 0 -0.5 0))

DIV OUT source 10((-4 4 -4) (0 0 0) (0 0 0) (0 0 0) (0 0 0) (0 0 0) (0 0 0) (0 0 0) (0 0 0) (0 0 0))


SOLVER:
MATRIX TE diag: square
10((6.5 0.5 1.5 2.220446049e-16 3.166666667 0.5 1.5 2.220446049e-16 2.5) (6 1 1 0.5 2.666666667 1 1 0.5 2) (6 1 1 0.5 2.666666667 1 1 0.5 2) (6 1 1 0.5 2.666666667 1 1 0.5 2) (6 1 1 0.5 2.666666667 1 1 0.5 2) (6 1 1 0.5 2.666666667 1 1 0.5 2) (6 1 1 0.5 2.666666667 1 1 0.5 2) (6 1 1 0.5 2.666666667 1 1 0.5 2) (6 1 1 0.5 2.666666667 1 1 0.5 2) (5 0 0 -0.5 1.666666667 5.551115123e-17 0 -0.5 1))

MATRIX TE upper: square
9{(0 0 0 0 0 0 0 0 0)}

MATRIX TE lowa: square
9{(-1 1 -1 -1 1 -1 -1 1 -1)}

MATRIX TE sors: 10((28.6365247 12.73446632 -13.25745591) (35.69155279 1.705846904 -13.77705486) (35.47582843 1.877600906 -12.44816082) (35.79945372 2.405585517 -11.35281866) (36.06714609 2.766632077 -10.74279029) (36.21416439 2.952749152 -10.45503304) (36.28253505 3.036549257 -10.33183384) (36.31144042 3.071282053 -10.28241626) (36.3229094 3.084878437 -10.26351337) (52.40250735 24.85491166 26.79265648))

DG MATRIX SOLVE
BiCGStab:  Solving for T, Initial residual = (0.1243086147 0.01116196734 0.08607166068), Final residual = (5.771033294e-33 1.733463359e-33 2.110303219e-33), No Iterations 1
SOLVER OUT

- - - - - - - - - - - -

Tvol: 10(10.51535346 14.1719852 13.89068528 13.50785215 13.25143923 13.11417022 13.04904047 13.02047896 13.00864462 -3.689255985)


- - - - - - - - - - - -

T: 10((6.04912483 5.431798407 -8.932457263) (6.735558928 1.83592093 -14.87285255) (6.499373536 1.288996155 -14.78262349) (6.48488786 1.363809018 -14.04592857) (6.51552949 1.520938908 -13.47181948) (6.541780981 1.631028092 -13.14477849) (6.557007246 1.690532433 -12.98406645) (6.564504577 1.718770082 -12.91194876) (6.567858669 1.731115029 -12.88157191) (8.871535817 12.74751078 25.1215836))

Test harness successfully finished.
-----------Time = 0.6

CONSTRUCT MATRIX
CONSTRUCT MATRIX
DIV DIAGONAL IS: square
10{(0 0 0 -0.5 0 5.551115123e-17 0 -0.5 0)}
DIV DIAGONAL IS: square
10((1 1 1 0.5 1 1 1 0.5 1) (1 1 1 0.5 1 1 1 0.5 1) (1 1 1 0.5 1 1 1 0.5 1) (1 1 1 0.5 1 1 1 0.5 1) (1 1 1 0.5 1 1 1 0.5 1) (1 1 1 0.5 1 1 1 0.5 1) (1 1 1 0.5 1 1 1 0.5 1) (1 1 1 0.5 1 1 1 0.5 1) (1 1 1 0.5 1 1 1 0.5 1) (0 0 0 -0.5 0 5.551115123e-17 0 -0.5 0))

DIV DIAGONAL IS NEG SUM: square
10((1 1 1 0.5 1 1 1 0.5 1) (1 1 1 0.5 1 1 1 0.5 1) (1 1 1 0.5 1 1 1 0.5 1) (1 1 1 0.5 1 1 1 0.5 1) (1 1 1 0.5 1 1 1 0.5 1) (1 1 1 0.5 1 1 1 0.5 1) (1 1 1 0.5 1 1 1 0.5 1) (1 1 1 0.5 1 1 1 0.5 1) (1 1 1 0.5 1 1 1 0.5 1) (0 0 0 -0.5 0 5.551115123e-17 0 -0.5 0))

 DG PATCH FIELD one in
 DG PATCH FIELD one out
 DG PATCH FIELD two in
 DG PATCH FIELD two out
DIV OUT diag 10((1.5 0.5 1.5 2.220446049e-16 1.5 0.5 1.5 2.220446049e-16 1.5) (1 1 1 0.5 1 1 1 0.5 1) (1 1 1 0.5 1 1 1 0.5 1) (1 1 1 0.5 1 1 1 0.5 1) (1 1 1 0.5 1 1 1 0.5 1) (1 1 1 0.5 1 1 1 0.5 1) (1 1 1 0.5 1 1 1 0.5 1) (1 1 1 0.5 1 1 1 0.5 1) (1 1 1 0.5 1 1 1 0.5 1) (0 0 0 -0.5 0 5.551115123e-17 0 -0.5 0))

DIV OUT source 10((-4 4 -4) (0 0 0) (0 0 0) (0 0 0) (0 0 0) (0 0 0) (0 0 0) (0 0 0) (0 0 0) (0 0 0))


SOLVER:
MATRIX TE diag: square
10((6.5 0.5 1.5 2.220446049e-16 3.166666667 0.5 1.5 2.220446049e-16 2.5) (6 1 1 0.5 2.666666667 1 1 0.5 2) (6 1 1 0.5 2.666666667 1 1 0.5 2) (6 1 1 0.5 2.666666667 1 1 0.5 2) (6 1 1 0.5 2.666666667 1 1 0.5 2) (6 1 1 0.5 2.666666667 1 1 0.5 2) (6 1 1 0.5 2.666666667 1 1 0.5 2) (6 1 1 0.5 2.666666667 1 1 0.5 2) (6 1 1 0.5 2.666666667 1 1 0.5 2) (5 0 0 -0.5 1.666666667 5.551115123e-17 0 -0.5 1))

MATRIX TE upper: square
9{(0 0 0 0 0 0 0 0 0)}

MATRIX TE lowa: square
9{(-1 1 -1 -1 1 -1 -1 1 -1)}

MATRIX TE sors: 10((26.24562415 13.05299735 -12.93245726) (33.67779464 3.059868216 -14.87285255) (32.49686768 2.148326925 -14.78262349) (32.4244393 2.273015031 -14.04592857) (32.57764745 2.534898179 -13.47181948) (32.7089049 2.718380154 -13.14477849) (32.78503623 2.817554054 -12.98406645) (32.82252288 2.864616804 -12.91194876) (32.83929334 2.885191716 -12.88157191) (44.35767908 21.2458513 25.1215836))

DG MATRIX SOLVE
BiCGStab:  Solving for T, Initial residual = (0.1365214005 0.02550765445 0.08069733271), Final residual = (2.319874899e-33 1.067142453e-33 2.227079903e-33), No Iterations 1
SOLVER OUT

- - - - - - - - - - - -

Tvol: 10(9.845875673 14.09042341 14.28966823 14.07508682 13.85216569 13.70714069 13.62867534 13.59051869 13.57326119 -2.448743113)


- - - - - - - - - - - -

T: 10((5.584141708 5.467809887 -8.52346793) (6.35595232 2.6038868 -15.46894219) (5.97950902 1.523255311 -16.62031842) (5.885079894 1.329909088 -16.38001386) (5.883432331 1.389677129 -15.93746672) (5.900335364 1.476791851 -15.61361064) (5.914407883 1.537056709 -15.42853491) (5.922753998 1.570344544 -15.33552938) (5.927005024 1.586655602 -15.29251233) (6.681103235 8.180544003 18.2596927))

Test harness successfully finished.
-----------Time = 0.7

CONSTRUCT MATRIX
CONSTRUCT MATRIX
DIV DIAGONAL IS: square
10{(0 0 0 -0.5 0 5.551115123e-17 0 -0.5 0)}
DIV DIAGONAL IS: square
10((1 1 1 0.5 1 1 1 0.5 1) (1 1 1 0.5 1 1 1 0.5 1) (1 1 1 0.5 1 1 1 0.5 1) (1 1 1 0.5 1 1 1 0.5 1) (1 1 1 0.5 1 1 1 0.5 1) (1 1 1 0.5 1 1 1 0.5 1) (1 1 1 0.5 1 1 1 0.5 1) (1 1 1 0.5 1 1 1 0.5 1) (1 1 1 0.5 1 1 1 0.5 1) (0 0 0 -0.5 0 5.551115123e-17 0 -0.5 0))

DIV DIAGONAL IS NEG SUM: square
10((1 1 1 0.5 1 1 1 0.5 1) (1 1 1 0.5 1 1 1 0.5 1) (1 1 1 0.5 1 1 1 0.5 1) (1 1 1 0.5 1 1 1 0.5 1) (1 1 1 0.5 1 1 1 0.5 1) (1 1 1 0.5 1 1 1 0.5 1) (1 1 1 0.5 1 1 1 0.5 1) (1 1 1 0.5 1 1 1 0.5 1) (1 1 1 0.5 1 1 1 0.5 1) (0 0 0 -0.5 0 5.551115123e-17 0 -0.5 0))

 DG PATCH FIELD one in
 DG PATCH FIELD one out
 DG PATCH FIELD two in
 DG PATCH FIELD two out
DIV OUT diag 10((1.5 0.5 1.5 2.220446049e-16 1.5 0.5 1.5 2.220446049e-16 1.5) (1 1 1 0.5 1 1 1 0.5 1) (1 1 1 0.5 1 1 1 0.5 1) (1 1 1 0.5 1 1 1 0.5 1) (1 1 1 0.5 1 1 1 0.5 1) (1 1 1 0.5 1 1 1 0.5 1) (1 1 1 0.5 1 1 1 0.5 1) (1 1 1 0.5 1 1 1 0.5 1) (1 1 1 0.5 1 1 1 0.5 1) (0 0 0 -0.5 0 5.551115123e-17 0 -0.5 0))

DIV OUT source 10((-4 4 -4) (0 0 0) (0 0 0) (0 0 0) (0 0 0) (0 0 0) (0 0 0) (0 0 0) (0 0 0) (0 0 0))


SOLVER:
MATRIX TE diag: square
10((6.5 0.5 1.5 2.220446049e-16 3.166666667 0.5 1.5 2.220446049e-16 2.5) (6 1 1 0.5 2.666666667 1 1 0.5 2) (6 1 1 0.5 2.666666667 1 1 0.5 2) (6 1 1 0.5 2.666666667 1 1 0.5 2) (6 1 1 0.5 2.666666667 1 1 0.5 2) (6 1 1 0.5 2.666666667 1 1 0.5 2) (6 1 1 0.5 2.666666667 1 1 0.5 2) (6 1 1 0.5 2.666666667 1 1 0.5 2) (6 1 1 0.5 2.666666667 1 1 0.5 2) (5 0 0 -0.5 1.666666667 5.551115123e-17 0 -0.5 1))

MATRIX TE upper: square
9{(0 0 0 0 0 0 0 0 0)}

MATRIX TE lowa: square
9{(-1 1 -1 -1 1 -1 -1 1 -1)}

MATRIX TE sors: 10((23.92070854 13.11301648 -12.52346793) (31.7797616 4.339811334 -15.46894219) (29.8975451 2.538758852 -16.62031842) (29.42539947 2.216515146 -16.38001386) (29.41716165 2.316128548 -15.93746672) (29.50167682 2.461319751 -15.61361064) (29.57203941 2.561761182 -15.42853491) (29.61376999 2.617240907 -15.33552938) (29.63502512 2.644426004 -15.29251233) (33.40551618 13.63424 18.2596927))

DG MATRIX SOLVE
BiCGStab:  Solving for T, Initial residual = (0.1602979239 0.04629360811 0.105734996), Final residual = (1.074775424e-33 1.397208051e-33 1.612163136e-34), No Iterations 1
SOLVER OUT

- - - - - - - - - - - -

Tvol: 10(9.17319523 13.84150785 14.53139211 14.53317057 14.37913289 14.24376867 14.15827847 14.11192519 14.08904628 1.322872769)


- - - - - - - - - - - -

T: 10((5.129616649 5.417872124 -8.087157162) (5.977994231 3.263410804 -15.72702723) (5.518863475 1.796977721 -18.02505728) (5.355212362 1.346870199 -18.35591642) (5.317563985 1.287341287 -18.1231378) (5.320399407 1.333103802 -17.84673853) (5.330559324 1.384678831 -17.65543829) (5.338582303 1.419404153 -17.54668578) (5.343360135 1.438728975 -17.49137229) (3.963755009 1.217625828 5.281764481))

Test harness successfully finished.
-----------Time = 0.8

CONSTRUCT MATRIX
CONSTRUCT MATRIX
DIV DIAGONAL IS: square
10{(0 0 0 -0.5 0 5.551115123e-17 0 -0.5 0)}
DIV DIAGONAL IS: square
10((1 1 1 0.5 1 1 1 0.5 1) (1 1 1 0.5 1 1 1 0.5 1) (1 1 1 0.5 1 1 1 0.5 1) (1 1 1 0.5 1 1 1 0.5 1) (1 1 1 0.5 1 1 1 0.5 1) (1 1 1 0.5 1 1 1 0.5 1) (1 1 1 0.5 1 1 1 0.5 1) (1 1 1 0.5 1 1 1 0.5 1) (1 1 1 0.5 1 1 1 0.5 1) (0 0 0 -0.5 0 5.551115123e-17 0 -0.5 0))

DIV DIAGONAL IS NEG SUM: square
10((1 1 1 0.5 1 1 1 0.5 1) (1 1 1 0.5 1 1 1 0.5 1) (1 1 1 0.5 1 1 1 0.5 1) (1 1 1 0.5 1 1 1 0.5 1) (1 1 1 0.5 1 1 1 0.5 1) (1 1 1 0.5 1 1 1 0.5 1) (1 1 1 0.5 1 1 1 0.5 1) (1 1 1 0.5 1 1 1 0.5 1) (1 1 1 0.5 1 1 1 0.5 1) (0 0 0 -0.5 0 5.551115123e-17 0 -0.5 0))

 DG PATCH FIELD one in
 DG PATCH FIELD one out
 DG PATCH FIELD two in
 DG PATCH FIELD two out
DIV OUT diag 10((1.5 0.5 1.5 2.220446049e-16 1.5 0.5 1.5 2.220446049e-16 1.5) (1 1 1 0.5 1 1 1 0.5 1) (1 1 1 0.5 1 1 1 0.5 1) (1 1 1 0.5 1 1 1 0.5 1) (1 1 1 0.5 1 1 1 0.5 1) (1 1 1 0.5 1 1 1 0.5 1) (1 1 1 0.5 1 1 1 0.5 1) (1 1 1 0.5 1 1 1 0.5 1) (1 1 1 0.5 1 1 1 0.5 1) (0 0 0 -0.5 0 5.551115123e-17 0 -0.5 0))

DIV OUT source 10((-4 4 -4) (0 0 0) (0 0 0) (0 0 0) (0 0 0) (0 0 0) (0 0 0) (0 0 0) (0 0 0) (0 0 0))


SOLVER:
MATRIX TE diag: square
10((6.5 0.5 1.5 2.220446049e-16 3.166666667 0.5 1.5 2.220446049e-16 2.5) (6 1 1 0.5 2.666666667 1 1 0.5 2) (6 1 1 0.5 2.666666667 1 1 0.5 2) (6 1 1 0.5 2.666666667 1 1 0.5 2) (6 1 1 0.5 2.666666667 1 1 0.5 2) (6 1 1 0.5 2.666666667 1 1 0.5 2) (6 1 1 0.5 2.666666667 1 1 0.5 2) (6 1 1 0.5 2.666666667 1 1 0.5 2) (6 1 1 0.5 2.666666667 1 1 0.5 2) (5 0 0 -0.5 1.666666667 5.551115123e-17 0 -0.5 1))

MATRIX TE upper: square
9{(0 0 0 0 0 0 0 0 0)}

MATRIX TE lowa: square
9{(-1 1 -1 -1 1 -1 -1 1 -1)}

MATRIX TE sors: 10((21.64808325 13.02978687 -12.08715716) (29.88997116 5.439018007 -15.72702723) (27.59431738 2.994962869 -18.02505728) (26.77606181 2.244783665 -18.35591642) (26.58781992 2.145568812 -18.1231378) (26.60199704 2.22183967 -17.84673853) (26.65279662 2.307798052 -17.65543829) (26.69291152 2.365673588 -17.54668578) (26.71680067 2.397881625 -17.49137229) (19.81877505 2.02937638 5.281764481))

DG MATRIX SOLVE
BiCGStab:  Solving for T, Initial residual = (0.1968849624 0.07641533805 0.1488119305), Final residual = (4.339496476e-33 1.957667583e-33 9.135782056e-34), No Iterations 1
SOLVER OUT

- - - - - - - - - - - -

Tvol: 10(8.508719167 13.46922653 14.63306481 14.88328064 14.82932584 14.72206471 14.63776514 14.58593369 14.55788535 8.146681986)


- - - - - - - - - - - -

T: 10((4.68560595 5.32196845 -7.646226434) (5.594372316 3.790856753 -15.74970843) (5.10388202 2.083197962 -19.05836557) (4.887053847 1.408510808 -19.99245359) (4.813974489 1.220765146 -20.03070271) (4.799710399 1.210949897 -19.84470862) (4.803484773 1.244500608 -19.66856074) (4.809871246 1.276232354 -19.55212489) (4.814640426 1.296961974 -19.48648985) (0.7699927295 -8.132663192 -14.75337851))

Test harness successfully finished.
-----------Time = 0.9

CONSTRUCT MATRIX
CONSTRUCT MATRIX
DIV DIAGONAL IS: square
10{(0 0 0 -0.5 0 5.551115123e-17 0 -0.5 0)}
DIV DIAGONAL IS: square
10((1 1 1 0.5 1 1 1 0.5 1) (1 1 1 0.5 1 1 1 0.5 1) (1 1 1 0.5 1 1 1 0.5 1) (1 1 1 0.5 1 1 1 0.5 1) (1 1 1 0.5 1 1 1 0.5 1) (1 1 1 0.5 1 1 1 0.5 1) (1 1 1 0.5 1 1 1 0.5 1) (1 1 1 0.5 1 1 1 0.5 1) (1 1 1 0.5 1 1 1 0.5 1) (0 0 0 -0.5 0 5.551115123e-17 0 -0.5 0))

DIV DIAGONAL IS NEG SUM: square
10((1 1 1 0.5 1 1 1 0.5 1) (1 1 1 0.5 1 1 1 0.5 1) (1 1 1 0.5 1 1 1 0.5 1) (1 1 1 0.5 1 1 1 0.5 1) (1 1 1 0.5 1 1 1 0.5 1) (1 1 1 0.5 1 1 1 0.5 1) (1 1 1 0.5 1 1 1 0.5 1) (1 1 1 0.5 1 1 1 0.5 1) (1 1 1 0.5 1 1 1 0.5 1) (0 0 0 -0.5 0 5.551115123e-17 0 -0.5 0))

 DG PATCH FIELD one in
 DG PATCH FIELD one out
 DG PATCH FIELD two in
 DG PATCH FIELD two out
DIV OUT diag 10((1.5 0.5 1.5 2.220446049e-16 1.5 0.5 1.5 2.220446049e-16 1.5) (1 1 1 0.5 1 1 1 0.5 1) (1 1 1 0.5 1 1 1 0.5 1) (1 1 1 0.5 1 1 1 0.5 1) (1 1 1 0.5 1 1 1 0.5 1) (1 1 1 0.5 1 1 1 0.5 1) (1 1 1 0.5 1 1 1 0.5 1) (1 1 1 0.5 1 1 1 0.5 1) (1 1 1 0.5 1 1 1 0.5 1) (0 0 0 -0.5 0 5.551115123e-17 0 -0.5 0))

DIV OUT source 10((-4 4 -4) (0 0 0) (0 0 0) (0 0 0) (0 0 0) (0 0 0) (0 0 0) (0 0 0) (0 0 0) (0 0 0))


SOLVER:
MATRIX TE diag: square
10((6.5 0.5 1.5 2.220446049e-16 3.166666667 0.5 1.5 2.220446049e-16 2.5) (6 1 1 0.5 2.666666667 1 1 0.5 2) (6 1 1 0.5 2.666666667 1 1 0.5 2) (6 1 1 0.5 2.666666667 1 1 0.5 2) (6 1 1 0.5 2.666666667 1 1 0.5 2) (6 1 1 0.5 2.666666667 1 1 0.5 2) (6 1 1 0.5 2.666666667 1 1 0.5 2) (6 1 1 0.5 2.666666667 1 1 0.5 2) (6 1 1 0.5 2.666666667 1 1 0.5 2) (5 0 0 -0.5 1.666666667 5.551115123e-17 0 -0.5 1))

MATRIX TE upper: square
9{(0 0 0 0 0 0 0 0 0)}

MATRIX TE lowa: square
9{(-1 1 -1 -1 1 -1 -1 1 -1)}

MATRIX TE sors: 10((19.42802975 12.86994742 -11.64622643) (27.97186158 6.318094589 -15.74970843) (25.5194101 3.471996603 -19.05836557) (24.43526923 2.347518013 -19.99245359) (24.06987244 2.034608576 -20.03070271) (23.99855199 2.018249829 -19.84470862) (24.01742386 2.074167679 -19.66856074) (24.04935623 2.127053923 -19.55212489) (24.07320213 2.161603291 -19.48648985) (3.849963647 -13.55443865 -14.75337851))

DG MATRIX SOLVE
BiCGStab:  Solving for T, Initial residual = (0.1903469015 0.09234753294 0.1676532896), Final residual = (1.998547317e-33 1.061728262e-33 2.092229222e-33), No Iterations 1
SOLVER OUT

- - - - - - - - - - - -

Tvol: 10(7.857600916 13.00693459 14.61140086 15.12935487 15.20217952 15.14162011 15.06817605 15.01481965 14.98276639 18.54776416)


- - - - - - - - - - - -

T: 10((4.252581253 5.202621183 -7.210039326) (5.20512493 4.184652073 -15.60361932) (4.724558712 2.362595651 -19.77368429) (4.472115795 1.505331391 -21.31447816) (4.367052748 1.190115747 -21.67025354) (4.334217431 1.114736222 -21.61480535) (4.32959341 1.121704543 -21.47716528) (4.333017743 1.145577169 -21.36360382) (4.337126634 1.165558591 -21.29127951) (-2.853949564 -19.86067494 -42.80342745))

Test harness successfully finished.
-----------Time = 1

CONSTRUCT MATRIX
CONSTRUCT MATRIX
DIV DIAGONAL IS: square
10{(0 0 0 -0.5 0 5.551115123e-17 0 -0.5 0)}
DIV DIAGONAL IS: square
10((1 1 1 0.5 1 1 1 0.5 1) (1 1 1 0.5 1 1 1 0.5 1) (1 1 1 0.5 1 1 1 0.5 1) (1 1 1 0.5 1 1 1 0.5 1) (1 1 1 0.5 1 1 1 0.5 1) (1 1 1 0.5 1 1 1 0.5 1) (1 1 1 0.5 1 1 1 0.5 1) (1 1 1 0.5 1 1 1 0.5 1) (1 1 1 0.5 1 1 1 0.5 1) (0 0 0 -0.5 0 5.551115123e-17 0 -0.5 0))

DIV DIAGONAL IS NEG SUM: square
10((1 1 1 0.5 1 1 1 0.5 1) (1 1 1 0.5 1 1 1 0.5 1) (1 1 1 0.5 1 1 1 0.5 1) (1 1 1 0.5 1 1 1 0.5 1) (1 1 1 0.5 1 1 1 0.5 1) (1 1 1 0.5 1 1 1 0.5 1) (1 1 1 0.5 1 1 1 0.5 1) (1 1 1 0.5 1 1 1 0.5 1) (1 1 1 0.5 1 1 1 0.5 1) (0 0 0 -0.5 0 5.551115123e-17 0 -0.5 0))

 DG PATCH FIELD one in
 DG PATCH FIELD one out
 DG PATCH FIELD two in
 DG PATCH FIELD two out
DIV OUT diag 10((1.5 0.5 1.5 2.220446049e-16 1.5 0.5 1.5 2.220446049e-16 1.5) (1 1 1 0.5 1 1 1 0.5 1) (1 1 1 0.5 1 1 1 0.5 1) (1 1 1 0.5 1 1 1 0.5 1) (1 1 1 0.5 1 1 1 0.5 1) (1 1 1 0.5 1 1 1 0.5 1) (1 1 1 0.5 1 1 1 0.5 1) (1 1 1 0.5 1 1 1 0.5 1) (1 1 1 0.5 1 1 1 0.5 1) (0 0 0 -0.5 0 5.551115123e-17 0 -0.5 0))

DIV OUT source 10((-4 4 -4) (0 0 0) (0 0 0) (0 0 0) (0 0 0) (0 0 0) (0 0 0) (0 0 0) (0 0 0) (0 0 0))


SOLVER:
MATRIX TE diag: square
10((6.5 0.5 1.5 2.220446049e-16 3.166666667 0.5 1.5 2.220446049e-16 2.5) (6 1 1 0.5 2.666666667 1 1 0.5 2) (6 1 1 0.5 2.666666667 1 1 0.5 2) (6 1 1 0.5 2.666666667 1 1 0.5 2) (6 1 1 0.5 2.666666667 1 1 0.5 2) (6 1 1 0.5 2.666666667 1 1 0.5 2) (6 1 1 0.5 2.666666667 1 1 0.5 2) (6 1 1 0.5 2.666666667 1 1 0.5 2) (6 1 1 0.5 2.666666667 1 1 0.5 2) (5 0 0 -0.5 1.666666667 5.551115123e-17 0 -0.5 1))

MATRIX TE upper: square
9{(0 0 0 0 0 0 0 0 0)}

MATRIX TE lowa: square
9{(-1 1 -1 -1 1 -1 -1 1 -1)}

MATRIX TE sors: 10((17.26290627 12.6710353 -11.21003933) (26.02562465 6.974420121 -15.60361932) (23.62279356 3.937659418 -19.77368429) (22.36057898 2.508885652 -21.31447816) (21.83526374 1.983526245 -21.67025354) (21.67108715 1.857893703 -21.61480535) (21.64796705 1.869507572 -21.47716528) (21.66508872 1.909295282 -21.36360382) (21.68563317 1.942597651 -21.29127951) (-14.26974782 -33.1011249 -42.80342745))

DG MATRIX SOLVE
BiCGStab:  Solving for T, Initial residual = (0.1093220516 0.06310824693 0.1139320423), Final residual = (6.665373069e-34 2.310662664e-34 4.265838764e-34), No Iterations 1
SOLVER OUT

- - - - - - - - - - - -

Tvol: 10(7.222116898 12.48067491 14.48205902 15.27666031 15.4984107 15.50269853 15.45083533 15.40103466 15.36688738 33.05485892)


- - - - - - - - - - - -

T: 10((3.830853102 5.072304979 -6.782527591) (4.813603337 4.454168296 -15.33414314) (4.373741946 2.622267936 -20.21663415) (4.102633226 1.627673652 -22.34805417) (3.970799383 1.192595468 -23.05522263) (3.919237307 1.045567043 -23.16692245) (3.90473108 1.018536878 -23.09220849) (3.903948655 1.029554502 -22.99417201) (3.906677114 1.046213164 -22.92042053) (-6.86594088 -33.95643115 -79.84159961))

Test harness successfully finished.
-----------Time = 1.1

CONSTRUCT MATRIX
CONSTRUCT MATRIX
DIV DIAGONAL IS: square
10{(0 0 0 -0.5 0 5.551115123e-17 0 -0.5 0)}
DIV DIAGONAL IS: square
10((1 1 1 0.5 1 1 1 0.5 1) (1 1 1 0.5 1 1 1 0.5 1) (1 1 1 0.5 1 1 1 0.5 1) (1 1 1 0.5 1 1 1 0.5 1) (1 1 1 0.5 1 1 1 0.5 1) (1 1 1 0.5 1 1 1 0.5 1) (1 1 1 0.5 1 1 1 0.5 1) (1 1 1 0.5 1 1 1 0.5 1) (1 1 1 0.5 1 1 1 0.5 1) (0 0 0 -0.5 0 5.551115123e-17 0 -0.5 0))

DIV DIAGONAL IS NEG SUM: square
10((1 1 1 0.5 1 1 1 0.5 1) (1 1 1 0.5 1 1 1 0.5 1) (1 1 1 0.5 1 1 1 0.5 1) (1 1 1 0.5 1 1 1 0.5 1) (1 1 1 0.5 1 1 1 0.5 1) (1 1 1 0.5 1 1 1 0.5 1) (1 1 1 0.5 1 1 1 0.5 1) (1 1 1 0.5 1 1 1 0.5 1) (1 1 1 0.5 1 1 1 0.5 1) (0 0 0 -0.5 0 5.551115123e-17 0 -0.5 0))

 DG PATCH FIELD one in
 DG PATCH FIELD one out
 DG PATCH FIELD two in
 DG PATCH FIELD two out
DIV OUT diag 10((1.5 0.5 1.5 2.220446049e-16 1.5 0.5 1.5 2.220446049e-16 1.5) (1 1 1 0.5 1 1 1 0.5 1) (1 1 1 0.5 1 1 1 0.5 1) (1 1 1 0.5 1 1 1 0.5 1) (1 1 1 0.5 1 1 1 0.5 1) (1 1 1 0.5 1 1 1 0.5 1) (1 1 1 0.5 1 1 1 0.5 1) (1 1 1 0.5 1 1 1 0.5 1) (1 1 1 0.5 1 1 1 0.5 1) (0 0 0 -0.5 0 5.551115123e-17 0 -0.5 0))

DIV OUT source 10((-4 4 -4) (0 0 0) (0 0 0) (0 0 0) (0 0 0) (0 0 0) (0 0 0) (0 0 0) (0 0 0) (0 0 0))


SOLVER:
MATRIX TE diag: square
10((6.5 0.5 1.5 2.220446049e-16 3.166666667 0.5 1.5 2.220446049e-16 2.5) (6 1 1 0.5 2.666666667 1 1 0.5 2) (6 1 1 0.5 2.666666667 1 1 0.5 2) (6 1 1 0.5 2.666666667 1 1 0.5 2) (6 1 1 0.5 2.666666667 1 1 0.5 2) (6 1 1 0.5 2.666666667 1 1 0.5 2) (6 1 1 0.5 2.666666667 1 1 0.5 2) (6 1 1 0.5 2.666666667 1 1 0.5 2) (6 1 1 0.5 2.666666667 1 1 0.5 2) (5 0 0 -0.5 1.666666667 5.551115123e-17 0 -0.5 1))

MATRIX TE upper: square
9{(0 0 0 0 0 0 0 0 0)}

MATRIX TE lowa: square
9{(-1 1 -1 -1 1 -1 -1 1 -1)}

MATRIX TE sors: 10((15.15426551 12.45384163 -10.78252759) (24.06801669 7.423613827 -15.33414314) (21.86870973 4.370446561 -20.21663415) (20.51316613 2.712789421 -22.34805417) (19.85399692 1.987659114 -23.05522263) (19.59618654 1.742611739 -23.16692245) (19.5236554 1.697561463 -23.09220849) (19.51974328 1.715924169 -22.99417201) (19.53338557 1.743688607 -22.92042053) (-34.3297044 -56.59405192 -79.84159961))

DG MATRIX SOLVE
BiCGStab:  Solving for T, Initial residual = (0.06423975021 0.04284185203 0.07906604545), Final residual = (9.222641148e-34 1.554377722e-34 3.937756895e-34), No Iterations 1
SOLVER OUT

- - - - - - - - - - - -

Tvol: 10(6.603169667 11.91125667 14.25964065 15.33118994 15.71948587 15.80583667 15.78698999 15.74682904 15.71325579 52.19984082)


- - - - - - - - - - - -

T: 10((3.420510883 4.937842236 -6.365317567) (4.424294054 4.613528663 -14.97392522) (4.046353018 2.854007056 -20.42657526) (3.771817942 1.766773182 -23.118744) (3.619386912 1.224174127 -24.20019792) (3.550001736 1.002860852 -24.51166987) (3.52466927 0.9357522264 -24.52464143) (3.518581277 0.9290267492 -24.45649552) (3.51918357 0.939487603 -24.38814445) (-11.22763058 -50.40978941 -126.8549428))

Test harness successfully finished.
